LAMMPS (23 Jun 2022)
package omp 0
using multi-threaded neighbor list subroutines
package omp 1
using multi-threaded neighbor list subroutines
# Sample LAMMPS input script for viscosity of 2d LJ liquid
# NEMD via fix deform and fix nvt/sllod

# Settings
variable	    x equal 20
variable	    y equal 20

variable	    rho equal 0.6
variable        t equal 1.0
variable	    rc equal 2.5

variable	    srate equal 2.7 # velocity of top edge

# Problem setup
units		    lj
dimension	    2
atom_style	    atomic
neigh_modify	delay 0 every 1

lattice         sq2 0.6
Lattice spacing in x,y,z = 1.8257419 1.8257419 1.8257419
region          simbox prism 0 $x 0 $y -0.1 0.1 0.0 0.0 0.0
region          simbox prism 0 20 0 $y -0.1 0.1 0.0 0.0 0.0
region          simbox prism 0 20 0 20 -0.1 0.1 0.0 0.0 0.0
create_box      1 simbox
Created triclinic box = (0 0 -0.18257419) to (36.514837 36.514837 0.18257419) with tilt (0 0 0)
create_atoms    1 box
Created 800 atoms

pair_style      lj/cut 2.5
pair_coeff      * * 1 1

mass            * 1.0

# Equilibration run
velocity        all create $t 97287
velocity        all create 1 97287
fix             1 all nve
fix	            2 all langevin $t $t 0.1 498094
fix	            2 all langevin 1 $t 0.1 498094
fix	            2 all langevin 1 1 0.1 498094
fix	            3 all enforce2d

thermo          1000
run	            5000
Generated 0 of 0 mixed pair_coeff terms from geometric mixing rule
Last active /omp style is pair_style lj/cut/omp
  update every 1 steps, delay 0 steps, check yes
Step          Temp          E_pair         E_mol          TotEng         Press
0   1             -1.56492        0             -0.56617       -1.535262
Loop time of 0.203604 on 64 procs for 5000 steps with 800 atoms

unfix  	        1
unfix		    2

# Turn on NEMD shear and equilibrate some more
velocity	    all scale $t
velocity	    all scale 1

# Shear rate defined relative to perpendicular dimension
variable	    xyrate equal 2.7/ly

fix		        1 all nvt/sllod temp $t $t 0.1
fix		        1 all nvt/sllod temp 1 $t 0.1
fix		        1 all nvt/sllod temp 1 1 0.1

# Perform deformation every 1 timestep
fix		        2 all deform 1 xy erate 0.0739425452631974 remap v

# The average in each chunk is computed every 5000 timesteps using 250 samples taken at intervals of
# 20 timesteps from the preceding timesteps.
# I think center means that coord1 is the center of the bin
compute         layers all chunk/atom bin/1d y upper 0.05 units reduced
fix		        4 all ave/chunk 20 250 5000 layers vx file profile.nemd.2d

compute		    usual all temp
compute		    tilt all temp/deform

thermo          1000
thermo_style	custom step temp c_usual epair etotal press pxy
thermo_modify	temp tilt
run		        50000
Generated 0 of 0 mixed pair_coeff terms from geometric mixing rule
Last active /omp style is pair_style lj/cut/omp
Step          Temp         c_usual         E_pair         TotEng         Press           Pxy
5000   2.2892741      1             -1.6015086      0.68490384     1.7500445      0.039089466
Averages over the last 26 of 51 rows, steps 30000 to 55000:
Temp c_usual E_pair TotEng Press Pxy
0.997241 2.09686 -1.59477 -0.598775 0.974532 -0.0950961
Loop time of 1.56631 on 64 procs for 50000 steps with 800 atoms

# Data gathering run
variable	    visc equal -pxy/(v_srate/ly)
fix		        vave all ave/time 10 100 1000 v_visc ave running start 56000

thermo_style	custom step temp press pxy v_visc f_vave
thermo_modify	temp tilt

# only need to run for 5400 steps to make a good 100-frame movie
# set 54K steps above in equil and 5400 here simply to make good movie
# 54K and 5400 are multiples of box-swap periodicity = 2700 steps

dump	        1 all custom 50 dump.nemd.2d id type x y z vx

run		        50000
Generated 0 of 0 mixed pair_coeff terms from geometric mixing rule
Last active /omp style is pair_style lj/cut/omp
Step          Temp          Press           Pxy           v_visc         f_vave
55000   0.99589416     0.8591417     -0.14134939     1.911611       0
Averages over the last 26 of 51 rows, steps 80000 to 105000:
Temp Press Pxy v_visc f_vave
0.999269 1.02314 -0.077534 1.04857 1.18932
Loop time of 2.26662 on 64 procs for 50000 steps with 800 atoms
